* NGSPICE file created from tt_um_htfab_hybrid.ext - technology: sky130A

.subckt transistor_pair_bus VDD VSS a_788_125# a_2388_849# a_1788_849# a_1018_849#
+ a_488_752# a_188_125# a_1188_849# a_418_849# a_2218_213# a_588_849# a_1618_213#
+ a_2388_213# a_1788_213# a_1018_213# a_1188_213# a_418_213# a_2288_125# a_1988_752#
+ a_1688_125# a_588_213# a_1918_849# a_1388_752# a_1088_125# a_1318_849# a_788_752#
+ a_488_125# a_2088_849# a_1488_849# a_718_849# a_188_752# a_888_849# a_118_849# a_1918_213#
+ a_1318_213# a_288_849# a_2088_213# a_1488_213# a_718_213# a_1988_125# a_2288_752#
+ a_888_213# a_118_213# a_1688_752# a_1388_125# a_2218_849# a_288_213# a_1618_849#
+ a_1088_752#
X0 a_2088_849# a_1988_752# a_1918_849# VDD sky130_fd_pr__pfet_g5v0d10v5 ad=0.35 pd=2.7 as=0.35 ps=2.7 w=1 l=0.5
X1 a_288_213# a_188_125# a_118_213# VSS sky130_fd_pr__nfet_g5v0d10v5 ad=0.2275 pd=2 as=0.2275 ps=2 w=0.65 l=0.5
X2 a_588_213# a_488_125# a_418_213# VSS sky130_fd_pr__nfet_g5v0d10v5 ad=0.2275 pd=2 as=0.2275 ps=2 w=0.65 l=0.5
X3 a_888_213# a_788_125# a_718_213# VSS sky130_fd_pr__nfet_g5v0d10v5 ad=0.2275 pd=2 as=0.2275 ps=2 w=0.65 l=0.5
X4 a_288_849# a_188_752# a_118_849# VDD sky130_fd_pr__pfet_g5v0d10v5 ad=0.35 pd=2.7 as=0.35 ps=2.7 w=1 l=0.5
X5 a_588_849# a_488_752# a_418_849# VDD sky130_fd_pr__pfet_g5v0d10v5 ad=0.35 pd=2.7 as=0.35 ps=2.7 w=1 l=0.5
X6 a_1188_213# a_1088_125# a_1018_213# VSS sky130_fd_pr__nfet_g5v0d10v5 ad=0.2275 pd=2 as=0.2275 ps=2 w=0.65 l=0.5
X7 a_888_849# a_788_752# a_718_849# VDD sky130_fd_pr__pfet_g5v0d10v5 ad=0.35 pd=2.7 as=0.35 ps=2.7 w=1 l=0.5
X8 a_1488_213# a_1388_125# a_1318_213# VSS sky130_fd_pr__nfet_g5v0d10v5 ad=0.2275 pd=2 as=0.2275 ps=2 w=0.65 l=0.5
X9 a_2388_213# a_2288_125# a_2218_213# VSS sky130_fd_pr__nfet_g5v0d10v5 ad=0.2275 pd=2 as=0.2275 ps=2 w=0.65 l=0.5
X10 a_1788_213# a_1688_125# a_1618_213# VSS sky130_fd_pr__nfet_g5v0d10v5 ad=0.2275 pd=2 as=0.2275 ps=2 w=0.65 l=0.5
X11 a_1188_849# a_1088_752# a_1018_849# VDD sky130_fd_pr__pfet_g5v0d10v5 ad=0.35 pd=2.7 as=0.35 ps=2.7 w=1 l=0.5
X12 a_2088_213# a_1988_125# a_1918_213# VSS sky130_fd_pr__nfet_g5v0d10v5 ad=0.2275 pd=2 as=0.2275 ps=2 w=0.65 l=0.5
X13 a_1488_849# a_1388_752# a_1318_849# VDD sky130_fd_pr__pfet_g5v0d10v5 ad=0.35 pd=2.7 as=0.35 ps=2.7 w=1 l=0.5
X14 a_2388_849# a_2288_752# a_2218_849# VDD sky130_fd_pr__pfet_g5v0d10v5 ad=0.35 pd=2.7 as=0.35 ps=2.7 w=1 l=0.5
X15 a_1788_849# a_1688_752# a_1618_849# VDD sky130_fd_pr__pfet_g5v0d10v5 ad=0.35 pd=2.7 as=0.35 ps=2.7 w=1 l=0.5
.ends

.subckt tie_highs tie_high_1[3]/HI tie_high_1[0]/HI tie_high_1[7]/HI tie_high_1[4]/HI
+ tie_high_1[1]/HI tie_high_1[5]/HI tie_high_1[2]/HI VSUBS tie_high_1[7]/VDD tie_high_1[6]/HI
Xtransistor_pair_bus_0 tie_high_1[7]/VDD VSUBS tie_high_1[2]/m1_221_141# tie_high_1[7]/HI
+ tie_high_1[5]/HI tie_high_1[7]/VDD tie_high_1[1]/m1_221_141# tie_high_1[0]/m1_221_141#
+ tie_high_1[3]/HI tie_high_1[7]/VDD VSUBS tie_high_1[1]/HI VSUBS tie_high_1[7]/m1_221_141#
+ tie_high_1[5]/m1_221_141# VSUBS tie_high_1[3]/m1_221_141# VSUBS tie_high_1[7]/m1_221_141#
+ tie_high_1[6]/m1_221_141# tie_high_1[5]/m1_221_141# tie_high_1[1]/m1_221_141# tie_high_1[7]/VDD
+ tie_high_1[4]/m1_221_141# tie_high_1[3]/m1_221_141# tie_high_1[7]/VDD tie_high_1[2]/m1_221_141#
+ tie_high_1[1]/m1_221_141# tie_high_1[6]/HI tie_high_1[4]/HI tie_high_1[7]/VDD tie_high_1[0]/m1_221_141#
+ tie_high_1[2]/HI tie_high_1[7]/VDD VSUBS VSUBS tie_high_1[0]/HI tie_high_1[6]/m1_221_141#
+ tie_high_1[4]/m1_221_141# VSUBS tie_high_1[6]/m1_221_141# tie_high_1[7]/m1_221_141#
+ tie_high_1[2]/m1_221_141# VSUBS tie_high_1[5]/m1_221_141# tie_high_1[4]/m1_221_141#
+ tie_high_1[7]/VDD tie_high_1[0]/m1_221_141# tie_high_1[7]/VDD tie_high_1[3]/m1_221_141#
+ transistor_pair_bus
.ends

.subckt tie_highs_dnwell tie_highs_0/tie_high_1[7]/HI tie_highs_0/tie_high_1[4]/HI
+ tie_highs_0/tie_high_1[1]/HI tie_highs_0/tie_high_1[5]/HI tie_highs_0/tie_high_1[2]/HI
+ tie_highs_0/tie_high_1[6]/HI tie_highs_0/tie_high_1[3]/HI tie_highs_0/tie_high_1[0]/HI
+ tie_highs_0/VSUBS tie_highs_0/tie_high_1[7]/VDD
Xtie_highs_0 tie_highs_0/tie_high_1[3]/HI tie_highs_0/tie_high_1[0]/HI tie_highs_0/tie_high_1[7]/HI
+ tie_highs_0/tie_high_1[4]/HI tie_highs_0/tie_high_1[1]/HI tie_highs_0/tie_high_1[5]/HI
+ tie_highs_0/tie_high_1[2]/HI tie_highs_0/VSUBS tie_highs_0/tie_high_1[7]/VDD tie_highs_0/tie_high_1[6]/HI
+ tie_highs
.ends

.subckt transistor_quartet_single VDD VSS a_188_125# a_288_1197# a_130_561# a_188_1536#
+ a_130_1633# a_130_1197# a_130_213# a_288_561# a_188_473# a_188_1100# a_288_213#
+ a_288_1633#
X0 a_288_213# a_188_125# a_130_213# VSS sky130_fd_pr__nfet_g5v0d10v5 ad=0.1885 pd=1.88 as=0.1885 ps=1.88 w=0.65 l=0.5
X1 a_288_1633# a_188_1536# a_130_1633# VDD sky130_fd_pr__pfet_g5v0d10v5 ad=0.29 pd=2.58 as=0.29 ps=2.58 w=1 l=0.5
X2 a_288_1197# a_188_1100# a_130_1197# VDD sky130_fd_pr__pfet_g5v0d10v5 ad=0.29 pd=2.58 as=0.29 ps=2.58 w=1 l=0.5
X3 a_288_561# a_188_473# a_130_561# VSS sky130_fd_pr__nfet_g5v0d10v5 ad=0.1885 pd=1.88 as=0.1885 ps=1.88 w=0.65 l=0.5
.ends

.subckt passgate_single passgate_0/UA passgate_0/VDD VSUBS passgate_0/EN passgate_0/UB
Xtransistor_quartet_single_0 passgate_0/VDD VSUBS passgate_0/EN passgate_0/UA passgate_0/UB
+ passgate_0/EN passgate_0/m1_192_1101# passgate_0/UB passgate_0/m1_192_1101# passgate_0/UA
+ passgate_0/EN passgate_0/m1_192_1101# VSUBS passgate_0/VDD transistor_quartet_single
.ends

.subckt passgate_dnwell passgate_single_0/passgate_0/UB passgate_single_0/passgate_0/UA
+ passgate_single_0/passgate_0/EN passgate_single_0/VSUBS passgate_single_0/passgate_0/VDD
Xpassgate_single_0 passgate_single_0/passgate_0/UA passgate_single_0/passgate_0/VDD
+ passgate_single_0/VSUBS passgate_single_0/passgate_0/EN passgate_single_0/passgate_0/UB
+ passgate_single
.ends

.subckt sky130_fd_pr__res_xhigh_po_0p35_MDZYBC a_48_n1041# a_n284_n1041# a_n118_n1041#
+ a_48_609# a_214_609# a_n284_609# a_214_n1041# a_n118_609# VSUBS
X0 a_n118_609# a_n118_n1041# VSUBS sky130_fd_pr__res_xhigh_po_0p35 l=6.25
X1 a_214_609# a_214_n1041# VSUBS sky130_fd_pr__res_xhigh_po_0p35 l=6.25
X2 a_n284_609# a_n284_n1041# VSUBS sky130_fd_pr__res_xhigh_po_0p35 l=6.25
X3 a_48_609# a_48_n1041# VSUBS sky130_fd_pr__res_xhigh_po_0p35 l=6.25
.ends

.subckt sky130_fd_pr__pfet_g5v0d10v5_EFU7LQ a_n100_n1015# w_n194_n1018# a_n158_118#
+ a_n100_21# w_n194_18# a_100_n918# a_n158_n918# a_100_118#
X0 a_100_118# a_n100_21# a_n158_118# w_n194_18# sky130_fd_pr__pfet_g5v0d10v5 ad=1.16 pd=8.58 as=1.16 ps=8.58 w=4 l=1
X1 a_100_n918# a_n100_n1015# a_n158_n918# w_n194_n1018# sky130_fd_pr__pfet_g5v0d10v5 ad=1.16 pd=8.58 as=1.16 ps=8.58 w=4 l=1
.ends

.subckt sky130_fd_pr__nfet_g5v0d10v5_H94GUP a_n100_n597# a_n100_21# a_100_109# a_100_n509#
+ a_n158_n509# a_n158_109# VSUBS
X0 a_100_n509# a_n100_n597# a_n158_n509# VSUBS sky130_fd_pr__nfet_g5v0d10v5 ad=0.58 pd=4.58 as=0.58 ps=4.58 w=2 l=1
X1 a_100_109# a_n100_21# a_n158_109# VSUBS sky130_fd_pr__nfet_g5v0d10v5 ad=0.58 pd=4.58 as=0.58 ps=4.58 w=2 l=1
.ends

.subckt opamp VDD OUT P N VSS
Xsky130_fd_pr__res_xhigh_po_0p35_MDZYBC_0 m1_3536_1272# m1_3204_1272# m1_3204_1272#
+ m1_3370_n378# m1_3479_n1228# VDD m1_3536_1272# m1_3370_n378# VSS sky130_fd_pr__res_xhigh_po_0p35_MDZYBC
Xsky130_fd_pr__pfet_g5v0d10v5_EFU7LQ_0 m1_4607_n611# VDD m1_4607_n611# m1_4607_n611#
+ VDD VDD m1_4607_n611# VDD sky130_fd_pr__pfet_g5v0d10v5_EFU7LQ
Xsky130_fd_pr__pfet_g5v0d10v5_EFU7LQ_1 m1_3836_n684# VDD m1_3836_n684# m1_3836_n684#
+ VDD VDD m1_3836_n684# VDD sky130_fd_pr__pfet_g5v0d10v5_EFU7LQ
Xsky130_fd_pr__pfet_g5v0d10v5_EFU7LQ_2 m1_3836_n684# VDD m1_4233_427# m1_3836_n684#
+ VDD VDD m1_4233_427# VDD sky130_fd_pr__pfet_g5v0d10v5_EFU7LQ
Xsky130_fd_pr__pfet_g5v0d10v5_EFU7LQ_3 P VDD m1_5361_421# P VDD m1_4233_427# m1_5361_421#
+ m1_4233_427# sky130_fd_pr__pfet_g5v0d10v5_EFU7LQ
Xsky130_fd_pr__pfet_g5v0d10v5_EFU7LQ_4 m1_4607_n611# VDD VDD m1_4607_n611# VDD OUT
+ VDD OUT sky130_fd_pr__pfet_g5v0d10v5_EFU7LQ
Xsky130_fd_pr__pfet_g5v0d10v5_EFU7LQ_5 N VDD m1_4233_427# N VDD OUT m1_4233_427# OUT
+ sky130_fd_pr__pfet_g5v0d10v5_EFU7LQ
Xsky130_fd_pr__nfet_g5v0d10v5_H94GUP_0 m1_5361_421# m1_5361_421# OUT OUT VSS VSS VSS
+ sky130_fd_pr__nfet_g5v0d10v5_H94GUP
Xsky130_fd_pr__nfet_g5v0d10v5_H94GUP_1 m1_3479_n1228# m1_3479_n1228# VSS VSS m1_3479_n1228#
+ m1_3479_n1228# VSS sky130_fd_pr__nfet_g5v0d10v5_H94GUP
Xsky130_fd_pr__nfet_g5v0d10v5_H94GUP_2 m1_3479_n1228# m1_3479_n1228# VSS VSS m1_3836_n684#
+ m1_3836_n684# VSS sky130_fd_pr__nfet_g5v0d10v5_H94GUP
Xsky130_fd_pr__nfet_g5v0d10v5_H94GUP_3 m1_3479_n1228# m1_3479_n1228# VSS VSS m1_4888_n610#
+ m1_4888_n610# VSS sky130_fd_pr__nfet_g5v0d10v5_H94GUP
Xsky130_fd_pr__nfet_g5v0d10v5_H94GUP_4 P P m1_4888_n610# m1_4888_n610# m1_4607_n611#
+ m1_4607_n611# VSS sky130_fd_pr__nfet_g5v0d10v5_H94GUP
Xsky130_fd_pr__nfet_g5v0d10v5_H94GUP_5 N N OUT OUT m1_4888_n610# m1_4888_n610# VSS
+ sky130_fd_pr__nfet_g5v0d10v5_H94GUP
Xsky130_fd_pr__nfet_g5v0d10v5_H94GUP_6 m1_5361_421# m1_5361_421# VSS VSS m1_5361_421#
+ m1_5361_421# VSS sky130_fd_pr__nfet_g5v0d10v5_H94GUP
.ends

.subckt sky130_fd_pr__res_xhigh_po_0p35_H47ZCG a_380_3184# a_n616_3184# a_48_n3616#
+ a_214_3184# a_546_n3616# a_48_3184# a_n284_n3616# a_n616_n3616# a_546_3184# a_n118_n3616#
+ a_n450_3184# a_n284_3184# a_380_n3616# a_n118_3184# a_n450_n3616# a_214_n3616# VSUBS
X0 a_n118_3184# a_n118_n3616# VSUBS sky130_fd_pr__res_xhigh_po_0p35 l=32
X1 a_n616_3184# a_n616_n3616# VSUBS sky130_fd_pr__res_xhigh_po_0p35 l=32
X2 a_380_3184# a_380_n3616# VSUBS sky130_fd_pr__res_xhigh_po_0p35 l=32
X3 a_546_3184# a_546_n3616# VSUBS sky130_fd_pr__res_xhigh_po_0p35 l=32
X4 a_n450_3184# a_n450_n3616# VSUBS sky130_fd_pr__res_xhigh_po_0p35 l=32
X5 a_n284_3184# a_n284_n3616# VSUBS sky130_fd_pr__res_xhigh_po_0p35 l=32
X6 a_48_3184# a_48_n3616# VSUBS sky130_fd_pr__res_xhigh_po_0p35 l=32
X7 a_214_3184# a_214_n3616# VSUBS sky130_fd_pr__res_xhigh_po_0p35 l=32
.ends

.subckt hybrid IN LINE OUT VSS VDD
Xx1 VDD OUT LINE x1/N VSS opamp
XXR1 m1_4200_6959# m1_3204_6959# m1_3702_159# m1_3868_6959# IN m1_3868_6959# m1_3370_159#
+ LINE m1_4200_6959# m1_3702_159# m1_3204_6959# m1_3536_6959# m1_4034_159# m1_3536_6959#
+ m1_3370_159# m1_4034_159# VSS sky130_fd_pr__res_xhigh_po_0p35_H47ZCG
XXR2 m1_5528_6959# m1_4532_6959# m1_5030_159# m1_5196_6959# x1/N m1_5196_6959# m1_4698_159#
+ IN m1_5528_6959# m1_5030_159# m1_4532_6959# m1_4864_6959# m1_5362_159# m1_4864_6959#
+ m1_4698_159# m1_5362_159# VSS sky130_fd_pr__res_xhigh_po_0p35_H47ZCG
Xsky130_fd_pr__res_xhigh_po_0p35_H47ZCG_0 m1_6856_6959# m1_5860_6959# m1_6358_159#
+ m1_6524_6959# OUT m1_6524_6959# m1_6026_159# x1/N m1_6856_6959# m1_6358_159# m1_5860_6959#
+ m1_6192_6959# m1_6690_159# m1_6192_6959# m1_6026_159# m1_6690_159# VSS sky130_fd_pr__res_xhigh_po_0p35_H47ZCG
.ends

.subckt hybrid_dnwell hybrid_0/IN hybrid_0/LINE hybrid_0/VDD hybrid_0/OUT hybrid_0/VSS
Xhybrid_0 hybrid_0/IN hybrid_0/LINE hybrid_0/OUT hybrid_0/VSS hybrid_0/VDD hybrid
.ends

.subckt transistor_pair_bus9 VDD VSS a_788_125# a_2388_849# a_1788_849# a_1018_849#
+ a_488_752# a_188_125# a_1188_849# a_418_849# a_2218_213# a_588_849# a_1618_213#
+ a_2388_213# a_1788_213# a_1018_213# a_1188_213# a_2588_752# a_418_213# a_2288_125#
+ a_1988_752# a_1688_125# a_2518_849# a_588_213# a_1918_849# a_1388_752# a_1088_125#
+ a_2688_849# a_1318_849# a_788_752# a_488_125# a_2088_849# a_1488_849# a_718_849#
+ a_188_752# a_2518_213# a_888_849# a_118_849# a_1918_213# a_2688_213# a_1318_213#
+ a_288_849# a_2088_213# a_1488_213# a_718_213# a_2588_125# a_1988_125# a_2288_752#
+ a_888_213# a_118_213# a_1688_752# a_1388_125# a_2218_849# a_288_213# a_1618_849#
+ a_1088_752#
X0 a_2088_849# a_1988_752# a_1918_849# VDD sky130_fd_pr__pfet_g5v0d10v5 ad=0.35 pd=2.7 as=0.35 ps=2.7 w=1 l=0.5
X1 a_288_213# a_188_125# a_118_213# VSS sky130_fd_pr__nfet_g5v0d10v5 ad=0.2275 pd=2 as=0.2275 ps=2 w=0.65 l=0.5
X2 a_588_213# a_488_125# a_418_213# VSS sky130_fd_pr__nfet_g5v0d10v5 ad=0.2275 pd=2 as=0.2275 ps=2 w=0.65 l=0.5
X3 a_888_213# a_788_125# a_718_213# VSS sky130_fd_pr__nfet_g5v0d10v5 ad=0.2275 pd=2 as=0.2275 ps=2 w=0.65 l=0.5
X4 a_288_849# a_188_752# a_118_849# VDD sky130_fd_pr__pfet_g5v0d10v5 ad=0.35 pd=2.7 as=0.35 ps=2.7 w=1 l=0.5
X5 a_588_849# a_488_752# a_418_849# VDD sky130_fd_pr__pfet_g5v0d10v5 ad=0.35 pd=2.7 as=0.35 ps=2.7 w=1 l=0.5
X6 a_1188_213# a_1088_125# a_1018_213# VSS sky130_fd_pr__nfet_g5v0d10v5 ad=0.2275 pd=2 as=0.2275 ps=2 w=0.65 l=0.5
X7 a_888_849# a_788_752# a_718_849# VDD sky130_fd_pr__pfet_g5v0d10v5 ad=0.35 pd=2.7 as=0.35 ps=2.7 w=1 l=0.5
X8 a_1488_213# a_1388_125# a_1318_213# VSS sky130_fd_pr__nfet_g5v0d10v5 ad=0.2275 pd=2 as=0.2275 ps=2 w=0.65 l=0.5
X9 a_2388_213# a_2288_125# a_2218_213# VSS sky130_fd_pr__nfet_g5v0d10v5 ad=0.2275 pd=2 as=0.2275 ps=2 w=0.65 l=0.5
X10 a_1788_213# a_1688_125# a_1618_213# VSS sky130_fd_pr__nfet_g5v0d10v5 ad=0.2275 pd=2 as=0.2275 ps=2 w=0.65 l=0.5
X11 a_2688_213# a_2588_125# a_2518_213# VSS sky130_fd_pr__nfet_g5v0d10v5 ad=0.2275 pd=2 as=0.2275 ps=2 w=0.65 l=0.5
X12 a_1188_849# a_1088_752# a_1018_849# VDD sky130_fd_pr__pfet_g5v0d10v5 ad=0.35 pd=2.7 as=0.35 ps=2.7 w=1 l=0.5
X13 a_2088_213# a_1988_125# a_1918_213# VSS sky130_fd_pr__nfet_g5v0d10v5 ad=0.2275 pd=2 as=0.2275 ps=2 w=0.65 l=0.5
X14 a_1488_849# a_1388_752# a_1318_849# VDD sky130_fd_pr__pfet_g5v0d10v5 ad=0.35 pd=2.7 as=0.35 ps=2.7 w=1 l=0.5
X15 a_2388_849# a_2288_752# a_2218_849# VDD sky130_fd_pr__pfet_g5v0d10v5 ad=0.35 pd=2.7 as=0.35 ps=2.7 w=1 l=0.5
X16 a_1788_849# a_1688_752# a_1618_849# VDD sky130_fd_pr__pfet_g5v0d10v5 ad=0.35 pd=2.7 as=0.35 ps=2.7 w=1 l=0.5
X17 a_2688_849# a_2588_752# a_2518_849# VDD sky130_fd_pr__pfet_g5v0d10v5 ad=0.35 pd=2.7 as=0.35 ps=2.7 w=1 l=0.5
.ends

.subckt decoder2 D0 D1 EN U0 U1 U2 U3 VDD VSS
Xtransistor_pair_bus9_0 VDD VSS x9/B x7/m1_612_845# U0 VDD D0 EN x6/m1_312_845# VDD
+ VSS x9/B VSS U1 U0 VSS U0 x9/C VSS x9/B x7/A x9/C x7/m1_612_845# x9/B VDD x8/B x7/A
+ U1 x6/m1_312_845# x9/B D0 x7/m1_312_845# x6/m1_612_845# VDD EN VSS x8/B VDD VSS
+ U1 VSS x9/C U1 U0 VSS x9/C x7/A x9/B x8/B VSS x9/C x8/B x7/m1_312_845# x9/C x6/m1_612_845#
+ x7/A transistor_pair_bus9
Xtransistor_pair_bus9_1 VDD VSS x9/A x9/m1_612_845# U2 VDD D1 VSS x8/m1_312_845# VDD
+ VSS x9/A VSS U3 U2 VSS U2 x9/C VSS x9/B x9/A x9/C x9/m1_612_845# x9/A VDD x8/B x9/A
+ U3 x8/m1_312_845# x9/A D1 x9/m1_312_845# x8/m1_612_845# VDD VSS VSS x7/A VDD VSS
+ U3 VSS xdummy/OUT U3 U2 VSS x9/C x9/A x9/B x7/A VSS x9/C x8/B x9/m1_312_845# xdummy/OUT
+ x8/m1_612_845# x9/A transistor_pair_bus9
.ends

.subckt decoder4_signed U15 U14 U13 U12 U11 U10 U9 U8 D1 U7 U6 U5 U4 U3 U2 U1 U0 D0
+ D3 VDD D2 VSS
Xx1[0] D3 D0 VDD x1[1]/EN x1[2]/EN x1[3]/EN x1[4]/EN VDD VSS decoder2
Xx1[1] D1 D2 x1[1]/EN U8 U10 U12 U14 VDD VSS decoder2
Xx1[2] D1 D2 x1[2]/EN U0 U2 U4 U6 VDD VSS decoder2
Xx1[3] D1 D2 x1[3]/EN U9 U11 U13 U15 VDD VSS decoder2
Xx1[4] D1 D2 x1[4]/EN U1 U3 U5 U7 VDD VSS decoder2
.ends

.subckt transistor_quartet_bus10 VSS VDD a_788_125# a_1716_1633# a_2662_1633# a_1164_213#
+ a_1992_1197# a_1716_561# a_2386_1633# a_612_1633# a_730_561# a_336_1633# a_1992_213#
+ a_1716_1197# a_236_125# a_178_213# a_2662_1197# a_2168_473# a_612_1197# a_2386_1197#
+ a_1892_1536# a_336_1197# a_612_213# a_2544_561# a_1064_125# a_1616_473# a_1558_561#
+ a_2820_1633# a_1440_213# a_1616_1536# a_2544_1633# a_1892_125# a_512_1536# a_2268_1633#
+ a_1340_1100# a_236_1536# a_1064_1100# a_788_1100# a_1006_561# a_512_125# a_454_213#
+ a_2820_1197# a_2444_473# a_2386_561# a_2544_1197# a_2268_1197# a_1282_213# a_2820_561#
+ a_1340_125# a_1834_561# a_2268_213# a_1282_1633# a_2720_1536# a_2444_1536# a_2168_1536#
+ a_1716_213# a_730_213# a_1006_1633# a_1282_1197# a_2720_473# a_2662_561# a_2168_125#
+ a_1006_1197# a_2544_213# a_1440_1633# a_1616_125# a_1558_213# a_2110_561# a_1164_1633#
+ a_888_561# a_888_1633# a_2110_1633# a_1440_1197# a_888_1197# a_1164_1197# a_2444_125#
+ a_1006_213# a_2386_213# a_336_561# a_2110_1197# a_788_473# a_2820_213# a_1340_1536#
+ a_1164_561# a_1834_213# a_1892_1100# a_1064_1536# a_788_1536# a_178_561# a_1992_561#
+ a_1616_1100# a_236_473# a_512_1100# a_2720_125# a_2662_213# a_612_561# a_236_1100#
+ a_1064_473# a_1440_561# a_1834_1633# a_1892_473# a_1558_1633# a_2110_213# a_888_213#
+ a_730_1633# a_454_1633# a_512_473# a_454_561# a_2720_1100# a_178_1633# a_2444_1100#
+ a_1834_1197# a_1558_1197# a_2168_1100# a_730_1197# a_1340_473# a_1282_561# a_454_1197#
+ a_1992_1633# a_336_213# a_178_1197# a_2268_561#
X0 a_2820_1197# a_2720_1100# a_2662_1197# VDD sky130_fd_pr__pfet_g5v0d10v5 ad=0.29 pd=2.58 as=0.29 ps=2.58 w=1 l=0.5
X1 a_2820_561# a_2720_473# a_2662_561# VSS sky130_fd_pr__nfet_g5v0d10v5 ad=0.1885 pd=1.88 as=0.1885 ps=1.88 w=0.65 l=0.5
X2 a_1716_213# a_1616_125# a_1558_213# VSS sky130_fd_pr__nfet_g5v0d10v5 ad=0.1885 pd=1.88 as=0.1885 ps=1.88 w=0.65 l=0.5
X3 a_1716_1633# a_1616_1536# a_1558_1633# VDD sky130_fd_pr__pfet_g5v0d10v5 ad=0.29 pd=2.58 as=0.29 ps=2.58 w=1 l=0.5
X4 a_2544_1633# a_2444_1536# a_2386_1633# VDD sky130_fd_pr__pfet_g5v0d10v5 ad=0.29 pd=2.58 as=0.29 ps=2.58 w=1 l=0.5
X5 a_888_561# a_788_473# a_730_561# VSS sky130_fd_pr__nfet_g5v0d10v5 ad=0.1885 pd=1.88 as=0.1885 ps=1.88 w=0.65 l=0.5
X6 a_1164_561# a_1064_473# a_1006_561# VSS sky130_fd_pr__nfet_g5v0d10v5 ad=0.1885 pd=1.88 as=0.1885 ps=1.88 w=0.65 l=0.5
X7 a_1440_213# a_1340_125# a_1282_213# VSS sky130_fd_pr__nfet_g5v0d10v5 ad=0.1885 pd=1.88 as=0.1885 ps=1.88 w=0.65 l=0.5
X8 a_1716_1197# a_1616_1100# a_1558_1197# VDD sky130_fd_pr__pfet_g5v0d10v5 ad=0.29 pd=2.58 as=0.29 ps=2.58 w=1 l=0.5
X9 a_2544_1197# a_2444_1100# a_2386_1197# VDD sky130_fd_pr__pfet_g5v0d10v5 ad=0.29 pd=2.58 as=0.29 ps=2.58 w=1 l=0.5
X10 a_2544_561# a_2444_473# a_2386_561# VSS sky130_fd_pr__nfet_g5v0d10v5 ad=0.1885 pd=1.88 as=0.1885 ps=1.88 w=0.65 l=0.5
X11 a_2268_1633# a_2168_1536# a_2110_1633# VDD sky130_fd_pr__pfet_g5v0d10v5 ad=0.29 pd=2.58 as=0.29 ps=2.58 w=1 l=0.5
X12 a_1164_213# a_1064_125# a_1006_213# VSS sky130_fd_pr__nfet_g5v0d10v5 ad=0.1885 pd=1.88 as=0.1885 ps=1.88 w=0.65 l=0.5
X13 a_2820_213# a_2720_125# a_2662_213# VSS sky130_fd_pr__nfet_g5v0d10v5 ad=0.1885 pd=1.88 as=0.1885 ps=1.88 w=0.65 l=0.5
X14 a_1992_1633# a_1892_1536# a_1834_1633# VDD sky130_fd_pr__pfet_g5v0d10v5 ad=0.29 pd=2.58 as=0.29 ps=2.58 w=1 l=0.5
X15 a_2268_561# a_2168_473# a_2110_561# VSS sky130_fd_pr__nfet_g5v0d10v5 ad=0.1885 pd=1.88 as=0.1885 ps=1.88 w=0.65 l=0.5
X16 a_888_213# a_788_125# a_730_213# VSS sky130_fd_pr__nfet_g5v0d10v5 ad=0.1885 pd=1.88 as=0.1885 ps=1.88 w=0.65 l=0.5
X17 a_2268_1197# a_2168_1100# a_2110_1197# VDD sky130_fd_pr__pfet_g5v0d10v5 ad=0.29 pd=2.58 as=0.29 ps=2.58 w=1 l=0.5
X18 a_1992_1197# a_1892_1100# a_1834_1197# VDD sky130_fd_pr__pfet_g5v0d10v5 ad=0.29 pd=2.58 as=0.29 ps=2.58 w=1 l=0.5
X19 a_2544_213# a_2444_125# a_2386_213# VSS sky130_fd_pr__nfet_g5v0d10v5 ad=0.1885 pd=1.88 as=0.1885 ps=1.88 w=0.65 l=0.5
X20 a_2268_213# a_2168_125# a_2110_213# VSS sky130_fd_pr__nfet_g5v0d10v5 ad=0.1885 pd=1.88 as=0.1885 ps=1.88 w=0.65 l=0.5
X21 a_612_561# a_512_473# a_454_561# VSS sky130_fd_pr__nfet_g5v0d10v5 ad=0.1885 pd=1.88 as=0.1885 ps=1.88 w=0.65 l=0.5
X22 a_1440_1633# a_1340_1536# a_1282_1633# VDD sky130_fd_pr__pfet_g5v0d10v5 ad=0.29 pd=2.58 as=0.29 ps=2.58 w=1 l=0.5
X23 a_1440_1197# a_1340_1100# a_1282_1197# VDD sky130_fd_pr__pfet_g5v0d10v5 ad=0.29 pd=2.58 as=0.29 ps=2.58 w=1 l=0.5
X24 a_336_561# a_236_473# a_178_561# VSS sky130_fd_pr__nfet_g5v0d10v5 ad=0.1885 pd=1.88 as=0.1885 ps=1.88 w=0.65 l=0.5
X25 a_1164_1633# a_1064_1536# a_1006_1633# VDD sky130_fd_pr__pfet_g5v0d10v5 ad=0.29 pd=2.58 as=0.29 ps=2.58 w=1 l=0.5
X26 a_1992_561# a_1892_473# a_1834_561# VSS sky130_fd_pr__nfet_g5v0d10v5 ad=0.1885 pd=1.88 as=0.1885 ps=1.88 w=0.65 l=0.5
X27 a_612_213# a_512_125# a_454_213# VSS sky130_fd_pr__nfet_g5v0d10v5 ad=0.1885 pd=1.88 as=0.1885 ps=1.88 w=0.65 l=0.5
X28 a_1164_1197# a_1064_1100# a_1006_1197# VDD sky130_fd_pr__pfet_g5v0d10v5 ad=0.29 pd=2.58 as=0.29 ps=2.58 w=1 l=0.5
X29 a_336_213# a_236_125# a_178_213# VSS sky130_fd_pr__nfet_g5v0d10v5 ad=0.1885 pd=1.88 as=0.1885 ps=1.88 w=0.65 l=0.5
X30 a_888_1633# a_788_1536# a_730_1633# VDD sky130_fd_pr__pfet_g5v0d10v5 ad=0.29 pd=2.58 as=0.29 ps=2.58 w=1 l=0.5
X31 a_1992_213# a_1892_125# a_1834_213# VSS sky130_fd_pr__nfet_g5v0d10v5 ad=0.1885 pd=1.88 as=0.1885 ps=1.88 w=0.65 l=0.5
X32 a_888_1197# a_788_1100# a_730_1197# VDD sky130_fd_pr__pfet_g5v0d10v5 ad=0.29 pd=2.58 as=0.29 ps=2.58 w=1 l=0.5
X33 a_612_1633# a_512_1536# a_454_1633# VDD sky130_fd_pr__pfet_g5v0d10v5 ad=0.29 pd=2.58 as=0.29 ps=2.58 w=1 l=0.5
X34 a_612_1197# a_512_1100# a_454_1197# VDD sky130_fd_pr__pfet_g5v0d10v5 ad=0.29 pd=2.58 as=0.29 ps=2.58 w=1 l=0.5
X35 a_336_1633# a_236_1536# a_178_1633# VDD sky130_fd_pr__pfet_g5v0d10v5 ad=0.29 pd=2.58 as=0.29 ps=2.58 w=1 l=0.5
X36 a_1716_561# a_1616_473# a_1558_561# VSS sky130_fd_pr__nfet_g5v0d10v5 ad=0.1885 pd=1.88 as=0.1885 ps=1.88 w=0.65 l=0.5
X37 a_2820_1633# a_2720_1536# a_2662_1633# VDD sky130_fd_pr__pfet_g5v0d10v5 ad=0.29 pd=2.58 as=0.29 ps=2.58 w=1 l=0.5
X38 a_336_1197# a_236_1100# a_178_1197# VDD sky130_fd_pr__pfet_g5v0d10v5 ad=0.29 pd=2.58 as=0.29 ps=2.58 w=1 l=0.5
X39 a_1440_561# a_1340_473# a_1282_561# VSS sky130_fd_pr__nfet_g5v0d10v5 ad=0.1885 pd=1.88 as=0.1885 ps=1.88 w=0.65 l=0.5
.ends

.subckt passgates x8/EN x5/EN x2/EN x7/UA x4/UA x1/UA x7/EN x4/EN x1/EN x6/UA x3/UA
+ x6/EN x3/EN x8/UA x8/UB x5/UA x8/VDD VSUBS x2/UA
Xtransistor_quartet_bus10_0 VSUBS x8/VDD x2/EN x5/m1_192_1101# x8/VDD x3/m1_192_1101#
+ x8/UB x8/UB x8/VDD x1/m1_192_1101# x2/UA xdummy1/m1_192_1101# x6/m1_192_1101# x8/UB
+ VSUBS VSUBS VSUBS x7/EN x8/UB x8/UA x6/EN VSUBS x1/m1_192_1101# x8/UB x3/EN x5/EN
+ x5/UA xdummy2/m1_192_1101# x4/m1_192_1101# x5/EN x8/m1_192_1101# x6/EN x1/EN x7/m1_192_1101#
+ x4/m1_192_1101# VSUBS x3/m1_192_1101# x2/m1_192_1101# x3/UA x1/EN VSUBS VSUBS x8/EN
+ x8/UA x8/UB x8/UB VSUBS VSUBS x4/EN x6/UA x7/m1_192_1101# x8/VDD VSUBS x8/EN x7/EN
+ x5/m1_192_1101# VSUBS x8/VDD x4/UA VSUBS VSUBS x7/EN x3/UA x8/m1_192_1101# x4/m1_192_1101#
+ x5/EN VSUBS x7/UA x3/m1_192_1101# x8/UB x2/m1_192_1101# x8/VDD x8/UB x8/UB x8/UB
+ x8/EN VSUBS VSUBS VSUBS x7/UA x2/EN xdummy2/m1_192_1101# x4/EN x8/UB VSUBS x6/m1_192_1101#
+ x3/EN x2/EN VSUBS x8/UB x5/m1_192_1101# VSUBS x1/m1_192_1101# VSUBS VSUBS x8/UB
+ xdummy1/m1_192_1101# x3/EN x8/UB x8/VDD x6/EN x8/VDD VSUBS x2/m1_192_1101# x8/VDD
+ x8/VDD x1/EN x1/UA xdummy2/m1_192_1101# x8/VDD x8/m1_192_1101# x6/UA x5/UA x7/m1_192_1101#
+ x2/UA x4/EN x4/UA x1/UA x6/m1_192_1101# xdummy1/m1_192_1101# VSUBS x8/UB transistor_quartet_bus10
.ends

.subckt sky130_fd_pr__res_xhigh_po_0p35_EMC64D a_380_3184# a_n1114_n3616# a_n616_3184#
+ a_1874_n3616# a_n1114_3184# a_48_n3616# a_214_3184# a_1874_3184# a_n1944_n3616#
+ a_1376_n3616# a_n782_n3616# a_546_n3616# a_1708_n3616# a_1708_3184# a_48_3184# a_n1612_3184#
+ a_712_3184# a_n1446_n3616# a_n284_n3616# a_n948_3184# a_n616_n3616# a_n1446_3184#
+ a_546_3184# a_1210_n3616# a_878_n3616# a_n118_n3616# a_1210_3184# a_n450_3184# a_n1944_3184#
+ a_n1778_n3616# a_1044_3184# a_n284_3184# a_n948_n3616# a_n1778_3184# a_878_3184#
+ a_380_n3616# a_1542_n3616# a_712_n3616# a_n1280_n3616# a_1542_3184# a_n118_3184#
+ a_n1612_n3616# a_n450_n3616# a_1044_n3616# a_214_n3616# a_n782_3184# a_1376_3184#
+ a_n1280_3184# VSUBS
X0 a_712_3184# a_712_n3616# VSUBS sky130_fd_pr__res_xhigh_po_0p35 l=32
X1 a_n118_3184# a_n118_n3616# VSUBS sky130_fd_pr__res_xhigh_po_0p35 l=32
X2 a_n1778_3184# a_n1778_n3616# VSUBS sky130_fd_pr__res_xhigh_po_0p35 l=32
X3 a_n616_3184# a_n616_n3616# VSUBS sky130_fd_pr__res_xhigh_po_0p35 l=32
X4 a_1044_3184# a_1044_n3616# VSUBS sky130_fd_pr__res_xhigh_po_0p35 l=32
X5 a_380_3184# a_380_n3616# VSUBS sky130_fd_pr__res_xhigh_po_0p35 l=32
X6 a_546_3184# a_546_n3616# VSUBS sky130_fd_pr__res_xhigh_po_0p35 l=32
X7 a_n1114_3184# a_n1114_n3616# VSUBS sky130_fd_pr__res_xhigh_po_0p35 l=32
X8 a_1542_3184# a_1542_n3616# VSUBS sky130_fd_pr__res_xhigh_po_0p35 l=32
X9 a_1708_3184# a_1708_n3616# VSUBS sky130_fd_pr__res_xhigh_po_0p35 l=32
X10 a_2040_3184# a_2040_n3616# VSUBS sky130_fd_pr__res_xhigh_po_0p35 l=32
X11 a_n1612_3184# a_n1612_n3616# VSUBS sky130_fd_pr__res_xhigh_po_0p35 l=32
X12 a_n450_3184# a_n450_n3616# VSUBS sky130_fd_pr__res_xhigh_po_0p35 l=32
X13 a_n284_3184# a_n284_n3616# VSUBS sky130_fd_pr__res_xhigh_po_0p35 l=32
X14 a_48_3184# a_48_n3616# VSUBS sky130_fd_pr__res_xhigh_po_0p35 l=32
X15 a_n948_3184# a_n948_n3616# VSUBS sky130_fd_pr__res_xhigh_po_0p35 l=32
X16 a_n782_3184# a_n782_n3616# VSUBS sky130_fd_pr__res_xhigh_po_0p35 l=32
X17 a_1376_3184# a_1376_n3616# VSUBS sky130_fd_pr__res_xhigh_po_0p35 l=32
X18 a_878_3184# a_878_n3616# VSUBS sky130_fd_pr__res_xhigh_po_0p35 l=32
X19 a_n2110_3184# a_n2110_n3616# VSUBS sky130_fd_pr__res_xhigh_po_0p35 l=32
X20 a_n1446_3184# a_n1446_n3616# VSUBS sky130_fd_pr__res_xhigh_po_0p35 l=32
X21 a_1874_3184# a_1874_n3616# VSUBS sky130_fd_pr__res_xhigh_po_0p35 l=32
X22 a_n1944_3184# a_n1944_n3616# VSUBS sky130_fd_pr__res_xhigh_po_0p35 l=32
X23 a_214_3184# a_214_n3616# VSUBS sky130_fd_pr__res_xhigh_po_0p35 l=32
X24 a_n1280_3184# a_n1280_n3616# VSUBS sky130_fd_pr__res_xhigh_po_0p35 l=32
X25 a_1210_3184# a_1210_n3616# VSUBS sky130_fd_pr__res_xhigh_po_0p35 l=32
.ends

.subckt digipot_1hot B U0 U1 U2 U3 U4 U5 U6 U7 U8 U9 U10 U11 U12 U13 U14 U15 passgates_1/x8/VDD
+ A W m1_276_2115# VDD VSS
Xpassgates_0 U15 U9 U3 passgates_0/x7/UA passgates_0/x4/UA passgates_0/x1/UA U13 U7
+ U1 passgates_0/x6/UA passgates_0/x3/UA U11 U5 passgates_0/x8/UA W passgates_0/x5/UA
+ VDD VSS passgates_0/x2/UA passgates
Xpassgates_1 U14 U8 U2 passgates_1/x7/UA passgates_1/x4/UA A U12 U6 U0 passgates_1/x6/UA
+ passgates_1/x3/UA U10 U4 passgates_1/x8/UA W passgates_1/x5/UA passgates_1/x8/VDD
+ VSS passgates_1/x2/UA passgates
Xsky130_fd_pr__res_xhigh_po_0p35_EMC64D_0 passgates_0/x4/UA m1_1106_2115# passgates_0/x1/UA
+ B m1_940_8915# passgates_1/x3/UA passgates_0/x3/UA passgates_0/x8/UA m1_276_2115#
+ passgates_1/x7/UA A passgates_1/x5/UA passgates_1/x8/UA passgates_0/x8/UA passgates_0/x3/UA
+ m1_608_8915# passgates_0/x5/UA m1_774_2115# passgates_1/x2/UA m1_1272_8915# A m1_608_8915#
+ passgates_0/x4/UA passgates_1/x7/UA passgates_1/x6/UA passgates_1/x3/UA passgates_0/x6/UA
+ passgates_0/x1/UA m1_276_8915# m1_442_2115# passgates_0/x6/UA passgates_0/x2/UA
+ m1_1106_2115# m1_276_8915# passgates_0/x5/UA passgates_1/x4/UA passgates_1/x8/UA
+ passgates_1/x5/UA m1_774_2115# passgates_0/x7/UA passgates_0/x2/UA m1_442_2115#
+ passgates_1/x2/UA passgates_1/x6/UA passgates_1/x4/UA m1_1272_8915# passgates_0/x7/UA
+ m1_940_8915# VSS sky130_fd_pr__res_xhigh_po_0p35_EMC64D
.ends

.subckt digipot B D0 D3 x2/m1_276_2115# D2 W D1 A VDD VSS
Xdecoder4_signed_0 x2/U15 x2/U14 x2/U13 x2/U12 x2/U11 x2/U10 x2/U9 x2/U8 D1 x2/U7
+ x2/U6 x2/U5 x2/U4 x2/U3 x2/U2 x2/U1 x2/U0 D0 D3 VDD D2 VSS decoder4_signed
Xx2 B x2/U0 x2/U1 x2/U2 x2/U3 x2/U4 x2/U5 x2/U6 x2/U7 x2/U8 x2/U9 x2/U10 x2/U11 x2/U12
+ x2/U13 x2/U14 x2/U15 VDD A W x2/m1_276_2115# VDD VSS digipot_1hot
.ends

.subckt hybrid_ctrl D0 D1 D2 D3 IN LINE OUT VSS VDD
Xx1 VDD OUT LINE x2/W VSS opamp
Xx2 OUT D0 D3 LINE D2 x2/W D1 IN VDD VSS digipot
.ends

.subckt hybrid_ctrl_dnwell hybrid_ctrl_0/D3 hybrid_ctrl_0/D2 hybrid_ctrl_0/D1 hybrid_ctrl_0/LINE
+ hybrid_ctrl_0/D0 hybrid_ctrl_0/IN hybrid_ctrl_0/OUT hybrid_ctrl_0/VSS hybrid_ctrl_0/VDD
Xhybrid_ctrl_0 hybrid_ctrl_0/D0 hybrid_ctrl_0/D1 hybrid_ctrl_0/D2 hybrid_ctrl_0/D3
+ hybrid_ctrl_0/IN hybrid_ctrl_0/LINE hybrid_ctrl_0/OUT hybrid_ctrl_0/VSS hybrid_ctrl_0/VDD
+ hybrid_ctrl
.ends

.subckt transistor_pair_bus8 VDD VSS a_788_125# a_2388_849# a_1788_849# a_1018_849#
+ a_488_752# a_188_125# a_1188_849# a_418_849# a_2218_213# a_588_849# a_1618_213#
+ a_2388_213# a_1788_213# a_1018_213# a_1188_213# a_418_213# a_2288_125# a_1988_752#
+ a_1688_125# a_588_213# a_1918_849# a_1388_752# a_1088_125# a_1318_849# a_788_752#
+ a_488_125# a_2088_849# a_1488_849# a_718_849# a_188_752# a_888_849# a_118_849# a_1918_213#
+ a_1318_213# a_288_849# a_2088_213# a_1488_213# a_718_213# a_1988_125# a_2288_752#
+ a_888_213# a_118_213# a_1688_752# a_1388_125# a_2218_849# a_288_213# a_1618_849#
+ a_1088_752#
X0 a_2088_849# a_1988_752# a_1918_849# VDD sky130_fd_pr__pfet_g5v0d10v5 ad=0.35 pd=2.7 as=0.35 ps=2.7 w=1 l=0.5
X1 a_288_213# a_188_125# a_118_213# VSS sky130_fd_pr__nfet_g5v0d10v5 ad=0.2275 pd=2 as=0.2275 ps=2 w=0.65 l=0.5
X2 a_588_213# a_488_125# a_418_213# VSS sky130_fd_pr__nfet_g5v0d10v5 ad=0.2275 pd=2 as=0.2275 ps=2 w=0.65 l=0.5
X3 a_888_213# a_788_125# a_718_213# VSS sky130_fd_pr__nfet_g5v0d10v5 ad=0.2275 pd=2 as=0.2275 ps=2 w=0.65 l=0.5
X4 a_288_849# a_188_752# a_118_849# VDD sky130_fd_pr__pfet_g5v0d10v5 ad=0.35 pd=2.7 as=0.35 ps=2.7 w=1 l=0.5
X5 a_588_849# a_488_752# a_418_849# VDD sky130_fd_pr__pfet_g5v0d10v5 ad=0.35 pd=2.7 as=0.35 ps=2.7 w=1 l=0.5
X6 a_1188_213# a_1088_125# a_1018_213# VSS sky130_fd_pr__nfet_g5v0d10v5 ad=0.2275 pd=2 as=0.2275 ps=2 w=0.65 l=0.5
X7 a_888_849# a_788_752# a_718_849# VDD sky130_fd_pr__pfet_g5v0d10v5 ad=0.35 pd=2.7 as=0.35 ps=2.7 w=1 l=0.5
X8 a_1488_213# a_1388_125# a_1318_213# VSS sky130_fd_pr__nfet_g5v0d10v5 ad=0.2275 pd=2 as=0.2275 ps=2 w=0.65 l=0.5
X9 a_2388_213# a_2288_125# a_2218_213# VSS sky130_fd_pr__nfet_g5v0d10v5 ad=0.2275 pd=2 as=0.2275 ps=2 w=0.65 l=0.5
X10 a_1788_213# a_1688_125# a_1618_213# VSS sky130_fd_pr__nfet_g5v0d10v5 ad=0.2275 pd=2 as=0.2275 ps=2 w=0.65 l=0.5
X11 a_1188_849# a_1088_752# a_1018_849# VDD sky130_fd_pr__pfet_g5v0d10v5 ad=0.35 pd=2.7 as=0.35 ps=2.7 w=1 l=0.5
X12 a_2088_213# a_1988_125# a_1918_213# VSS sky130_fd_pr__nfet_g5v0d10v5 ad=0.2275 pd=2 as=0.2275 ps=2 w=0.65 l=0.5
X13 a_1488_849# a_1388_752# a_1318_849# VDD sky130_fd_pr__pfet_g5v0d10v5 ad=0.35 pd=2.7 as=0.35 ps=2.7 w=1 l=0.5
X14 a_2388_849# a_2288_752# a_2218_849# VDD sky130_fd_pr__pfet_g5v0d10v5 ad=0.35 pd=2.7 as=0.35 ps=2.7 w=1 l=0.5
X15 a_1788_849# a_1688_752# a_1618_849# VDD sky130_fd_pr__pfet_g5v0d10v5 ad=0.35 pd=2.7 as=0.35 ps=2.7 w=1 l=0.5
.ends

.subckt shifters_split shifter_split_1[2]/OUT shifter_split_1[0]/IN shifter_split_1[7]/IN
+ shifter_split_1[6]/OUT shifter_split_1[4]/IN shifter_split_1[3]/OUT shifter_split_1[1]/IN